*Heading
** Job name: necking Model name: necking1
** Generated by: Abaqus/CAE 2016.HF2
*Preprint, echo=NO, model=NO, history=NO, contact=NO
**
** PARTS
**
*Part, name=PART-1
*Node
      1,           0.,           0.
      2, 0.0500000007,           0.
      3,  0.100000001,           0.
      4,  0.150000006,           0.
      5,  0.200000003,           0.
      6,         0.25,           0.
      7,  0.300000012,           0.
      8,  0.349999994,           0.
      9,  0.400000006,           0.
     10,  0.449999988,           0.
     11,          0.5,           0.
     12,  0.550000012,           0.
     13,  0.600000024,           0.
     14,  0.649999976,           0.
     15,  0.699999988,           0.
     16,         0.75,           0.
     17,  0.800000012,           0.
     18,  0.850000024,           0.
     19,  0.899999976,           0.
     20,  0.949999988,           0.
** ... 1387 like lines cut
*Element, type=CAX4R
   1,    1,    3,  203,  201
   2,    3,    5,  205,  203
   3,    5,    7,  207,  205
   4,    7,    9,  209,  207
   5,    9,   11,  211,  209
   6,   11,   13,  213,  211
   7,   13,   15,  215,  213
   8,   15,   17,  217,  215
   9,   17,   19,  219,  217
  10,   19,   21,  221,  219
 101,  201,  203,  403,  401
 102,  203,  205,  405,  403
 103,  205,  207,  407,  405
 104,  207,  209,  409,  407
 105,  209,  211,  411,  409
 106,  211,  213,  413,  411
 107,  213,  215,  415,  413
 108,  215,  217,  417,  415
 109,  217,  219,  419,  417
 110,  219,  221,  421,  419
** ... 310 like lines cut
*Elset, elset=EALL
    1,    2,    3,    4,    5,    6,    7,    8,    9,   10,  101,  102,  103,  104,  105,  106
  107,  108,  109,  110,  201,  202,  203,  204,  205,  206,  207,  208,  209,  210,  301,  302
  303,  304,  305,  306,  307,  308,  309,  310,  401,  402,  403,  404,  405,  406,  407,  408
  409,  410,  501,  502,  503,  504,  505,  506,  507,  508,  509,  510,  601,  602,  603,  604
  605,  606,  607,  608,  609,  610,  701,  702,  703,  704,  705,  706,  707,  708,  709,  710
  801,  802,  803,  804,  805,  806,  807,  808,  809,  810,  901,  902,  903,  904,  905,  906
  907,  908,  909,  910, 1001, 1002, 1003, 1004, 1005, 1006, 1007, 1008, 1009, 1010, 1101, 1102
 1103, 1104, 1105, 1106, 1107, 1108, 1109, 1110, 1201, 1202, 1203, 1204, 1205, 1206, 1207, 1208
 1209, 1210, 1301, 1302, 1303, 1304, 1305, 1306, 1307, 1308, 1309, 1310, 1401, 1402, 1403, 1404
 1405, 1406, 1407, 1408, 1409, 1410, 1501, 1502, 1503, 1504, 1505, 1506, 1507, 1508, 1509, 1510
 1601, 1602, 1603, 1604, 1605, 1606, 1607, 1608, 1609, 1610, 1701, 1702, 1703, 1704, 1705, 1706
 1707, 1708, 1709, 1710, 1801, 1802, 1803, 1804, 1805, 1806, 1807, 1808, 1809, 1810, 1901, 1902
 1903, 1904, 1905, 1906, 1907, 1908, 1909, 1910, 2001, 2002, 2003, 2004, 2005, 2006, 2007, 2008
 2009, 2010, 2101, 2102, 2103, 2104, 2105, 2106, 2107, 2108, 2109, 2110, 2201, 2202, 2203, 2204
 2205, 2206, 2207, 2208, 2209, 2210, 2301, 2302, 2303, 2304, 2305, 2306, 2307, 2308, 2309, 2310
 2401, 2402, 2403, 2404, 2405, 2406, 2407, 2408, 2409, 2410, 2501, 2502, 2503, 2504, 2505, 2506
 2507, 2508, 2509, 2510, 2601, 2602, 2603, 2604, 2605, 2606, 2607, 2608, 2609, 2610, 2701, 2702
 2703, 2704, 2705, 2706, 2707, 2708, 2709, 2710, 2801, 2802, 2803, 2804, 2805, 2806, 2807, 2808
 2809, 2810, 2901, 2902, 2903, 2904, 2905, 2906, 2907, 2908, 2909, 2910, 3001, 3002, 3003, 3004
 3005, 3006, 3007, 3008, 3009, 3010, 3101, 3102, 3103, 3104, 3105, 3106, 3107, 3108, 3109, 3110
 3201, 3202, 3203, 3204, 3205, 3206, 3207, 3208, 3209, 3210
** Section: Section-1-EALL
*Solid Section, elset=EALL, material=MAT1
,
*End Part
**  
**
** ASSEMBLY
**
*Assembly, name=Assembly
**  
*Instance, name=PART-1-1, part=PART-1
*End Instance
**  
*Nset, nset=BOT, instance=PART-1-1, generate
  1,  21,   1
*Nset, nset=BOT1, instance=PART-1-1, generate
  1,  20,   1
*Nset, nset=BOT3, instance=PART-1-1, generate
 201,  221,    1
*Nset, nset=LEFT, instance=PART-1-1, generate
  201,  6401,   100
*Nset, nset=NALL, instance=PART-1-1
  201,  202,  203,  204,  205,  206,  207,  208,  209,  210,  211,  212,  213,  214,  215,  216
  217,  218,  219,  220,  221,  301,  302,  303,  304,  305,  306,  307,  308,  309,  310,  311
  312,  313,  314,  315,  316,  317,  318,  319,  320,  321,  401,  402,  403,  404,  405,  406
  407,  408,  409,  410,  411,  412,  413,  414,  415,  416,  417,  418,  419,  420,  421,  501
  502,  503,  504,  505,  506,  507,  508,  509,  510,  511,  512,  513,  514,  515,  516,  517
  518,  519,  520,  521,  601,  602,  603,  604,  605,  606,  607,  608,  609,  610,  611,  612
  613,  614,  615,  616,  617,  618,  619,  620,  621,  701,  702,  703,  704,  705,  706,  707
  708,  709,  710,  711,  712,  713,  714,  715,  716,  717,  718,  719,  720,  721,  801,  802
  803,  804,  805,  806,  807,  808,  809,  810,  811,  812,  813,  814,  815,  816,  817,  818
  819,  820,  821,  901,  902,  903,  904,  905,  906,  907,  908,  909,  910,  911,  912,  913
  914,  915,  916,  917,  918,  919,  920,  921, 1001, 1002, 1003, 1004, 1005, 1006, 1007, 1008
 1009, 1010, 1011, 1012, 1013, 1014, 1015, 1016, 1017, 1018, 1019, 1020, 1021, 1101, 1102, 1103
 1104, 1105, 1106, 1107, 1108, 1109, 1110, 1111, 1112, 1113, 1114, 1115, 1116, 1117, 1118, 1119
 1120, 1121, 1201, 1202, 1203, 1204, 1205, 1206, 1207, 1208, 1209, 1210, 1211, 1212, 1213, 1214
 1215, 1216, 1217, 1218, 1219, 1220, 1221, 1301, 1302, 1303, 1304, 1305, 1306, 1307, 1308, 1309
 1310, 1311, 1312, 1313, 1314, 1315, 1316, 1317, 1318, 1319, 1320, 1321, 1401, 1402, 1403, 1404
 1405, 1406, 1407, 1408, 1409, 1410, 1411, 1412, 1413, 1414, 1415, 1416, 1417, 1418, 1419, 1420
 1421, 1501, 1502, 1503, 1504, 1505, 1506, 1507, 1508, 1509, 1510, 1511, 1512, 1513, 1514, 1515
 1516, 1517, 1518, 1519, 1520, 1521, 1601, 1602, 1603, 1604, 1605, 1606, 1607, 1608, 1609, 1610
 1611, 1612, 1613, 1614, 1615, 1616, 1617, 1618, 1619, 1620, 1621, 1701, 1702, 1703, 1704, 1705
** ... 66 like lines cut
*Nset, nset=TOP, instance=PART-1-1, generate
 6601,  6621,     1
*End Assembly
** 
** MATERIALS
** 
*Material, name=MAT1
*Elastic
300., 0.3
*Plastic
    1.,         0.
  1.05, 0.00167236
   1.1, 0.00431525
  1.15, 0.00836493
   1.2,  0.0144205
  1.25,  0.0232937
   1.3,  0.0360701
  1.35,  0.0541855
   1.4,  0.0795178
  1.42,  0.0921948
  1.44,   0.106593
  1.46,   0.122915
  1.48,   0.141387
   1.5,   0.162254
  1.52,   0.185789
  1.54,    0.21229
  1.56,   0.242083
  1.58,   0.275527
   1.6,   0.313013
  1.65,   0.427318
   1.7,   0.577485
  1.75,   0.773177
 1.795,   0.997982
*Porous Metal Plasticity, relative density=1.
 1.5,   1., 2.25
*Void Nucleation
 0.3,  0.1, 0.04
** ----------------------------------------------------------------
** 
** STEP: Step-1
** 
*Step, name=Step-1, nlgeom=YES, inc=400
*Static
0.001, 1.5, 1.5e-05, 0.03
** 
** BOUNDARY CONDITIONS
** 
** Name: Disp-BC-1 Type: Displacement/Rotation
*Boundary
BOT, 2, 2
** Name: Disp-BC-2 Type: Displacement/Rotation
*Boundary
LEFT, 1, 1
** Name: Disp-BC-3 Type: Displacement/Rotation
*Boundary
TOP, 2, 2, 0.76
** 
** OUTPUT REQUESTS
** 
*Restart, write, frequency=100
** 
** FIELD OUTPUT: F-Output-1
** 
*Output, field, variable=PRESELECT
** 
** HISTORY OUTPUT: H-Output-1
** 
*Output, history, variable=PRESELECT
*End Step
** ----------------------------------------------------------------
** 
** STEP: Step-2
** 
*Step, name=Step-2, nlgeom=YES, inc=400
*Static
0.001, 0.1, 1e-06, 0.03
** 
** BOUNDARY CONDITIONS
** 
** Name: Disp-BC-1 Type: Displacement/Rotation
*Boundary, op=NEW
BOT, 2, 2
** Name: Disp-BC-2 Type: Displacement/Rotation
*Boundary, op=NEW
LEFT, 1, 1
** Name: Disp-BC-3 Type: Displacement/Rotation
*Boundary, op=NEW
** Name: Disp-BC-4 Type: Displacement/Rotation
*Boundary, op=NEW
TOP, 2, 2, 0.79
** 
** OUTPUT REQUESTS
** 
*Restart, write, frequency=100
** 
** FIELD OUTPUT: F-Output-1
** 
*Output, field, variable=PRESELECT
** 
** HISTORY OUTPUT: H-Output-1
** 
*Output, history, variable=PRESELECT
*End Step
