*Heading
** Job name: default Model name: Model-1
** Generated by: Abaqus/CAE 2016.HF2
*Preprint, echo=NO, model=NO, history=NO, contact=NO
**
** PARTS
**
*Part, name=Part-1
*Node
      1,           0.,           0.
      2, 0.0666666701,           0.
      3,   0.13333334,           0.
      4,  0.200000003,           0.
      5,  0.266666681,           0.
      6,  0.333333343,           0.
      7,  0.400000006,           0.
      8,  0.466666669,           0.
      9,  0.533333361,           0.
     10,  0.600000024,           0.
     11,  0.666666687,           0.
     12,  0.733333349,           0.
     13,  0.800000012,           0.
     14,  0.866666675,           0.
     15,  0.933333337,           0.
     16,        0.985,           0.
     17,           0., 0.0199999996
     18, 0.0666666701, 0.0199999996
     19,   0.13333334, 0.0199999996
     20,  0.200000003, 0.0199999996
** ... 604 like lines cut
*Element, type=CAX4R
  1,   1,   2,  18,  17
  2,   2,   3,  19,  18
  3,   3,   4,  20,  19
  4,   4,   5,  21,  20
  5,   5,   6,  22,  21
  6,   6,   7,  23,  22
  7,   7,   8,  24,  23
  8,   8,   9,  25,  24
  9,   9,  10,  26,  25
 10,  10,  11,  27,  26
 11,  11,  12,  28,  27
 12,  12,  13,  29,  28
 13,  13,  14,  30,  29
 14,  14,  15,  31,  30
 15,  15,  16,  32,  31
 16,  17,  18,  34,  33
 17,  18,  19,  35,  34
 18,  19,  20,  36,  35
 19,  20,  21,  37,  36
 20,  21,  22,  38,  37
** ... 550 like lines cut
*Nset, nset=Set-1, generate
   1,  624,    1
*Elset, elset=Set-1, generate
   1,  570,    1
** Section: Section-1
*Solid Section, elset=Set-1, material=Material-1
,
*End Part
**  
**
** ASSEMBLY
**
*Assembly, name=Assembly
**  
*Instance, name=Part-1-1, part=Part-1
*End Instance
**  
*Nset, nset=BOT, instance=Part-1-1, generate
  1,  16,   1
*Elset, elset=BOT, instance=Part-1-1, generate
  1,  15,   1
*Nset, nset=LEFT, instance=Part-1-1, generate
   1,  609,   16
*Elset, elset=LEFT, instance=Part-1-1, generate
   1,  556,   15
*Nset, nset=TOP, instance=Part-1-1, generate
 609,  624,    1
*Elset, elset=TOP, instance=Part-1-1, generate
 556,  570,    1
*End Assembly
** 
** MATERIALS
** 
*Material, name=Material-1
*Elastic
300., 0.3
*Plastic
      1.,         0.
    1.05, 0.00167236
     1.1, 0.00431525
    1.15, 0.00836493
     1.2,  0.0144205
    1.25,  0.0232937
     1.3,  0.0360701
    1.35,  0.0541855
     1.4,  0.0795178
    1.42,  0.0921948
    1.44,   0.106593
    1.46,   0.122915
    1.48,   0.141387
     1.5,   0.162254
    1.52,   0.185789
 1.53999,    0.21229
 1.55999,   0.242083
 1.57999,   0.275527
 1.59999,   0.313013
 1.64999,   0.427318
 1.69999,   0.577485
 1.74999,   0.773177
 1.79499,   0.997982
*Porous Metal Plasticity, relative density=1.
 1.5,   1., 2.25
*Void Nucleation
0.,  0.3, 0.04
** ----------------------------------------------------------------
** 
** STEP: Step-1
** 
*Step, name=Step-1, nlgeom=YES
*Static
0.015, 1.5, 1.5e-05, 0.03
** 
** BOUNDARY CONDITIONS
** 
** Name: BC-1 Type: Displacement/Rotation
*Boundary
LEFT, 1, 1
** Name: BC-2 Type: Displacement/Rotation
*Boundary
BOT, 2, 2
** Name: BC-3 Type: Displacement/Rotation
*Boundary
TOP, 2, 2, 0.76
** 
** OUTPUT REQUESTS
** 
*Restart, write, frequency=0
** 
** FIELD OUTPUT: F-Output-1
** 
*Output, field
*Node Output
COORD, U
*Element Output, directions=YES
LE, PE, PEEQ, PEMAG, S
** 
** HISTORY OUTPUT: H-Output-1
** 
*Output, history, variable=PRESELECT
*End Step
